<?xml version="1.0" encoding="UTF-8"?>
<routes xmlns:xsi="http://www.w3.org/2001/XMLSchema-instance" xsi:noNamespaceSchemaLocation="http://sumo.dlr.de/xsd/routes_file.xsd">

    <!-- Vehicle Types Definition -->
    <vType id="car" accel="1.0" decel="4.5" sigma="0.0" length="4.5" minGap="2.5" maxSpeed="13.89" guiShape="passenger" emissionClass="Energy/unknown">
        <param key="has.battery.device" value="true"/>
        <param key="device.battery.energyCapacity" value="50.0"/>
        <param key="device.battery.powerMax" value="100.0"/>
        <param key="device.battery.efficiency" value="0.95"/>
    </vType>

    <!-- Route Definition -->
    <route id="route0" edges="E0 E1"/>

    <!-- Vehicle Instances -->
    <vehicle id="veh0" type="car" route="route0" depart="0" departPos="0"/>
    <vehicle id="veh1" type="car" route="route0" depart="30" departPos="0"/>
    <vehicle id="veh2" type="car" route="route0" depart="60" departPos="0"/>
    <vehicle id="veh3" type="car" route="route0" depart="90" departPos="0"/>
    <vehicle id="veh4" type="car" route="route0" depart="120" departPos="0"/>
    <vehicle id="veh5" type="car" route="route0" depart="150" departPos="0"/>
    <vehicle id="veh6" type="car" route="route0" depart="180" departPos="0"/>
    <vehicle id="veh7" type="car" route="route0" depart="210" departPos="0"/>
    <vehicle id="veh8" type="car" route="route0" depart="240" departPos="0"/>
    <vehicle id="veh9" type="car" route="route0" depart="270" departPos="0"/>

</routes>
