<?xml version="1.0" encoding="UTF-8"?>
<net version="1.20" junctionCornerDetail="5" limitTurnSpeed="5.50" xmlns:xsi="http://www.w3.org/2001/XMLSchema-instance" xsi:noNamespaceSchemaLocation="http://sumo.dlr.de/xsd/net_file.xsd">

    <location netOffset="0.00,0.00" convBoundary="-44.46,54.10,5034.82,54.22" origBoundary="-10000000000.00,-10000000000.00,10000000000.00,10000000000.00" projParameter="!"/>

    <edge id=":J1_0" function="internal">
        <lane id=":J1_0_0" index="0" speed="13.89" length="0.10" shape="1455.54,52.62 1455.54,52.62"/>
    </edge>

    <edge id="E0" from="J0" to="J1" priority="-1">
        <lane id="E0_0" index="0" speed="13.89" length="1500.00" shape="-44.46,52.62 1455.54,52.62"/>
    </edge>
    <edge id="E1" from="J1" to="J3" priority="-1">
        <lane id="E1_0" index="0" speed="13.89" length="3579.28" shape="1455.54,52.62 5034.82,52.50"/>
    </edge>

    <tlLogic id="J1" type="static" programID="0" offset="0">
        <phase duration="15" state="G"/>
        <phase duration="6" state="y"/>
        <phase duration="20" state="r"/>
    </tlLogic>

    <junction id="J0" type="dead_end" x="-44.46" y="54.22" incLanes="" intLanes="" shape="-44.46,54.22 -44.46,51.02"/>
    <junction id="J1" type="traffic_light" x="1455.54" y="54.22" incLanes="E0_0" intLanes=":J1_0_0" shape="1455.54,54.22 1455.54,51.02 1455.54,54.22">
        <request index="0" response="0" foes="0" cont="0"/>
    </junction>
    <junction id="J3" type="dead_end" x="5034.82" y="54.10" incLanes="E1_0" intLanes="" shape="5034.82,50.90 5034.82,54.10"/>

    <connection from="E0" to="E1" fromLane="0" toLane="0" via=":J1_0_0" tl="J1" linkIndex="0" dir="s" state="O"/>
    <connection from=":J1_0" to="E1" fromLane="0" toLane="0" dir="s" state="M"/>

</net>
